<additional>
  <vType id="30km" maxSpeed="8.33333" />
</additional>
