<?xml version="1.0" encoding="UTF-8"?>

<!-- generated on Thu Jul 26 17:27:21 2018 by SUMO netconvert Version 0.32.0
<?xml version="1.0" encoding="UTF-8"?>

<configuration xmlns:xsi="http://www.w3.org/2001/XMLSchema-instance" xsi:noNamespaceSchemaLocation="http://sumo.dlr.de/xsd/netconvertConfiguration.xsd">

    <input>
        <osm-files value="map.osm"/>
    </input>

    <output>
        <output-file value="map.net.xml"/>
    </output>

    <projection>
        <proj.utm value="true"/>
    </projection>

</configuration>
-->

<net version="0.27" xmlns:xsi="http://www.w3.org/2001/XMLSchema-instance" xsi:noNamespaceSchemaLocation="http://sumo.dlr.de/xsd/net_file.xsd">

    <location netOffset="-678586.33,879644.05" convBoundary="0.00,0.00,1086.32,1013.10" origBoundary="112.620159,-7.954707,112.630033,-7.945578" projParameter="+proj=utm +zone=49 +ellps=WGS84 +datum=WGS84 +units=m +no_defs"/>

    <type id="highway.bridleway" priority="1" numLanes="1" speed="2.78" allow="pedestrian" oneway="1" width="2.00"/>
    <type id="highway.bus_guideway" priority="1" numLanes="1" speed="8.33" allow="bus" oneway="1"/>
    <type id="highway.cycleway" priority="1" numLanes="1" speed="5.56" allow="bicycle" oneway="0" width="1.00"/>
    <type id="highway.footway" priority="1" numLanes="1" speed="2.78" allow="pedestrian" oneway="1" width="2.00"/>
    <type id="highway.ford" priority="1" numLanes="1" speed="2.78" allow="army" oneway="0"/>
    <type id="highway.living_street" priority="3" numLanes="1" speed="2.78" disallow="tram rail_urban rail rail_electric ship" oneway="0"/>
    <type id="highway.motorway" priority="13" numLanes="2" speed="44.44" allow="private emergency authority army vip passenger hov taxi bus coach delivery truck trailer motorcycle evehicle custom1 custom2" oneway="1"/>
    <type id="highway.motorway_link" priority="12" numLanes="1" speed="22.22" allow="private emergency authority army vip passenger hov taxi bus coach delivery truck trailer motorcycle evehicle custom1 custom2" oneway="1"/>
    <type id="highway.path" priority="1" numLanes="1" speed="2.78" allow="bicycle pedestrian" oneway="1" width="2.00"/>
    <type id="highway.pedestrian" priority="1" numLanes="1" speed="2.78" allow="pedestrian" oneway="1" width="2.00"/>
    <type id="highway.primary" priority="9" numLanes="2" speed="27.78" disallow="tram rail_urban rail rail_electric ship" oneway="0"/>
    <type id="highway.primary_link" priority="8" numLanes="1" speed="22.22" disallow="tram rail_urban rail rail_electric ship" oneway="0"/>
    <type id="highway.raceway" priority="14" numLanes="2" speed="83.33" allow="vip" oneway="0"/>
    <type id="highway.residential" priority="4" numLanes="1" speed="13.89" disallow="tram rail_urban rail rail_electric ship" oneway="0"/>
    <type id="highway.secondary" priority="7" numLanes="2" speed="27.78" disallow="tram rail_urban rail rail_electric ship" oneway="0"/>
    <type id="highway.secondary_link" priority="6" numLanes="1" speed="22.22" disallow="tram rail_urban rail rail_electric ship" oneway="0"/>
    <type id="highway.service" priority="2" numLanes="1" speed="5.56" allow="delivery bicycle pedestrian" oneway="0"/>
    <type id="highway.services" priority="1" numLanes="1" speed="8.33" disallow="tram rail_urban rail rail_electric ship" oneway="0"/>
    <type id="highway.stairs" priority="1" numLanes="1" speed="1.39" allow="pedestrian" oneway="1" width="2.00"/>
    <type id="highway.step" priority="1" numLanes="1" speed="1.39" allow="pedestrian" oneway="1" width="2.00"/>
    <type id="highway.steps" priority="1" numLanes="1" speed="1.39" allow="pedestrian" oneway="1" width="2.00"/>
    <type id="highway.tertiary" priority="6" numLanes="1" speed="22.22" disallow="tram rail_urban rail rail_electric ship" oneway="0"/>
    <type id="highway.tertiary_link" priority="5" numLanes="1" speed="22.22" disallow="tram rail_urban rail rail_electric ship" oneway="0"/>
    <type id="highway.track" priority="1" numLanes="1" speed="5.56" disallow="tram rail_urban rail rail_electric ship" oneway="0"/>
    <type id="highway.trunk" priority="11" numLanes="2" speed="27.78" disallow="tram rail_urban rail rail_electric bicycle pedestrian ship" oneway="0"/>
    <type id="highway.trunk_link" priority="10" numLanes="1" speed="22.22" disallow="tram rail_urban rail rail_electric bicycle pedestrian ship" oneway="0"/>
    <type id="highway.unclassified" priority="5" numLanes="1" speed="13.89" disallow="tram rail_urban rail rail_electric ship" oneway="0"/>
    <type id="highway.unsurfaced" priority="1" numLanes="1" speed="8.33" disallow="tram rail_urban rail rail_electric ship" oneway="0"/>
    <type id="railway.light_rail" priority="15" numLanes="1" speed="27.78" allow="rail_urban" oneway="1"/>
    <type id="railway.preserved" priority="15" numLanes="1" speed="27.78" allow="rail" oneway="1"/>
    <type id="railway.rail" priority="15" numLanes="1" speed="83.33" allow="rail rail_electric" oneway="1"/>
    <type id="railway.subway" priority="15" numLanes="1" speed="27.78" allow="rail_urban" oneway="1"/>
    <type id="railway.tram" priority="15" numLanes="1" speed="13.89" allow="tram" oneway="1"/>

    <edge id=":-38980_0" function="internal">
        <lane id=":-38980_0_0" index="0" disallow="tram rail_urban rail rail_electric ship" speed="8.33" length="1.51" shape="1065.08,226.46 1064.54,225.05"/>
    </edge>
    <edge id=":-38980_1" function="internal">
        <lane id=":-38980_1_0" index="0" disallow="tram rail_urban rail rail_electric ship" speed="8.33" length="3.30" shape="1065.08,226.46 1068.08,225.09"/>
    </edge>
    <edge id=":-38980_2" function="internal">
        <lane id=":-38980_2_0" index="0" disallow="tram rail_urban rail rail_electric ship" speed="8.33" length="3.30" shape="1065.08,226.46 1068.08,225.09"/>
    </edge>
    <edge id=":-38980_3" function="internal">
        <lane id=":-38980_3_0" index="0" disallow="tram rail_urban rail rail_electric ship" speed="8.33" length="1.30" shape="1067.62,223.87 1068.08,225.09"/>
    </edge>
    <edge id=":-38980_4" function="internal">
        <lane id=":-38980_4_0" index="0" disallow="tram rail_urban rail rail_electric ship" speed="8.33" length="1.30" shape="1067.62,223.87 1068.08,225.09"/>
    </edge>
    <edge id=":-38980_5" function="internal">
        <lane id=":-38980_5_0" index="0" disallow="tram rail_urban rail rail_electric ship" speed="8.33" length="4.82" shape="1067.62,223.87 1067.29,225.32 1066.67,226.00 1065.75,225.91 1064.54,225.05"/>
    </edge>
    <edge id=":-38980_6" function="internal">
        <lane id=":-38980_6_0" index="0" disallow="tram rail_urban rail rail_electric ship" speed="8.33" length="1.51" shape="1065.08,226.46 1064.54,225.05"/>
    </edge>
    <edge id=":-38980_7" function="internal">
        <lane id=":-38980_7_0" index="0" disallow="tram rail_urban rail rail_electric ship" speed="8.33" length="3.30" shape="1065.08,226.46 1068.08,225.09"/>
    </edge>
    <edge id=":-38980_8" function="internal">
        <lane id=":-38980_8_0" index="0" disallow="tram rail_urban rail rail_electric ship" speed="8.33" length="3.30" shape="1065.08,226.46 1068.08,225.09"/>
    </edge>
    <edge id=":-38982_0" function="internal">
        <lane id=":-38982_0_0" index="0" disallow="tram rail_urban rail rail_electric ship" speed="8.33" length="9.50" shape="962.20,281.94 953.72,286.23"/>
    </edge>
    <edge id=":-38982_1" function="internal">
        <lane id=":-38982_1_0" index="0" disallow="tram rail_urban rail rail_electric ship" speed="8.33" length="10.33" shape="962.20,281.94 959.54,282.84 957.21,282.66 955.22,281.42 953.57,279.11"/>
    </edge>
    <edge id=":-38982_2" function="internal">
        <lane id=":-38982_2_0" index="0" disallow="tram rail_urban rail rail_electric ship" speed="8.33" length="4.82" shape="962.20,281.94 960.72,281.76 959.98,281.21 959.97,280.29 960.71,279.00"/>
    </edge>
    <edge id=":-38982_3" function="internal">
        <lane id=":-38982_3_0" index="0" disallow="tram rail_urban rail rail_electric ship" speed="8.33" length="5.06" shape="956.49,277.58 957.30,278.72 958.28,279.34 959.41,279.43 960.71,279.00"/>
    </edge>
    <edge id=":-38982_4" function="internal">
        <lane id=":-38982_4_0" index="0" disallow="tram rail_urban rail rail_electric ship" speed="8.33" length="10.39" shape="956.49,277.58 957.44,280.27 957.30,282.61 956.06,284.59 953.72,286.23"/>
    </edge>
    <edge id=":-38982_5" function="internal">
        <lane id=":-38982_5_0" index="0" disallow="tram rail_urban rail rail_electric ship" speed="8.33" length="4.82" shape="956.49,277.58 956.33,279.06 955.79,279.80 954.87,279.82 953.57,279.11"/>
    </edge>
    <edge id=":-38982_6" function="internal">
        <lane id=":-38982_6_0" index="0" disallow="tram rail_urban rail rail_electric ship" speed="8.33" length="5.02" shape="952.23,283.28 953.36,282.49 953.96,281.53 954.03,280.41 953.57,279.11"/>
    </edge>
    <edge id=":-38982_7" function="internal">
        <lane id=":-38982_7_0" index="0" disallow="tram rail_urban rail rail_electric ship" speed="8.33" length="9.50" shape="952.23,283.28 960.71,279.00"/>
    </edge>
    <edge id=":-38982_8" function="internal">
        <lane id=":-38982_8_0" index="0" disallow="tram rail_urban rail rail_electric ship" speed="8.33" length="4.82" shape="952.23,283.28 953.70,283.46 954.44,284.01 954.45,284.93 953.72,286.23"/>
    </edge>
    <edge id=":-38986_0" function="internal">
        <lane id=":-38986_0_0" index="0" disallow="tram rail_urban rail rail_electric ship" speed="8.33" length="9.50" shape="328.82,245.24 324.29,236.89"/>
    </edge>
    <edge id=":-38986_1" function="internal">
        <lane id=":-38986_1_0" index="0" disallow="tram rail_urban rail rail_electric ship" speed="8.33" length="10.33" shape="328.82,245.24 327.87,242.64 327.98,240.31 329.16,238.26 331.41,236.49"/>
    </edge>
    <edge id=":-38986_2" function="internal">
        <lane id=":-38986_2_0" index="0" disallow="tram rail_urban rail rail_electric ship" speed="8.33" length="4.82" shape="328.82,245.24 328.96,243.76 329.49,243.01 330.41,242.97 331.72,243.67"/>
    </edge>
    <edge id=":-38986_3" function="internal">
        <lane id=":-38986_3_0" index="0" disallow="tram rail_urban rail rail_electric ship" speed="8.33" length="5.13" shape="333.08,239.34 331.94,240.23 331.34,241.25 331.26,242.39 331.72,243.67"/>
    </edge>
    <edge id=":-38986_4" function="internal">
        <lane id=":-38986_4_0" index="0" disallow="tram rail_urban rail rail_electric ship" speed="8.33" length="10.49" shape="333.08,239.34 330.41,240.43 328.05,240.39 326.01,239.21 324.29,236.89"/>
    </edge>
    <edge id=":-38986_5" function="internal">
        <lane id=":-38986_5_0" index="0" disallow="tram rail_urban rail rail_electric ship" speed="8.33" length="4.82" shape="333.08,239.34 331.60,239.26 330.82,238.75 330.76,237.83 331.41,236.49"/>
    </edge>
    <edge id=":-38986_6" function="internal">
        <lane id=":-38986_6_0" index="0" disallow="tram rail_urban rail rail_electric ship" speed="8.33" length="5.04" shape="327.19,235.32 328.02,236.43 329.00,237.00 330.13,237.02 331.41,236.49"/>
    </edge>
    <edge id=":-38986_7" function="internal">
        <lane id=":-38986_7_0" index="0" disallow="tram rail_urban rail rail_electric ship" speed="8.33" length="9.50" shape="327.19,235.32 331.72,243.67"/>
    </edge>
    <edge id=":-38986_8" function="internal">
        <lane id=":-38986_8_0" index="0" disallow="tram rail_urban rail rail_electric ship" speed="8.33" length="4.82" shape="327.19,235.32 327.05,236.80 326.53,237.55 325.60,237.58 324.29,236.89"/>
    </edge>
    <edge id=":1513962148_0" function="internal">
        <lane id=":1513962148_0_0" index="0" disallow="tram rail_urban rail rail_electric ship" speed="8.33" length="2.83" shape="592.15,745.21 592.06,744.35 592.15,743.42 592.14,742.76 591.77,742.72"/>
    </edge>
    <edge id=":1513962148_1" function="internal">
        <lane id=":1513962148_1_0" index="0" disallow="tram rail_urban rail rail_electric ship" speed="8.33" length="8.19" shape="592.15,745.21 591.46,742.73 591.47,740.69 592.17,739.08 593.56,737.91"/>
    </edge>
    <edge id=":1513962148_2" function="internal">
        <lane id=":1513962148_2_0" index="0" disallow="tram rail_urban rail rail_electric ship" speed="8.33" length="4.82" shape="592.15,745.21 592.48,743.76 593.10,743.08 594.02,743.17 595.23,744.03"/>
    </edge>
    <edge id=":1513962148_3" function="internal">
        <lane id=":1513962148_3_0" index="0" disallow="tram rail_urban rail rail_electric ship" speed="8.33" length="3.51" shape="595.23,740.75 594.84,741.17 594.71,741.86 594.84,742.81 595.23,744.03"/>
    </edge>
    <edge id=":1513962148_4" function="internal">
        <lane id=":1513962148_4_0" index="0" disallow="tram rail_urban rail rail_electric ship" speed="8.33" length="3.98" shape="595.23,740.75 591.77,742.72"/>
    </edge>
    <edge id=":1513962148_5" function="internal">
        <lane id=":1513962148_5_0" index="0" disallow="tram rail_urban rail rail_electric ship" speed="8.33" length="4.82" shape="595.23,740.75 593.75,740.67 592.97,740.17 592.91,739.25 593.56,737.91"/>
    </edge>
    <edge id=":1513962148_6" function="internal">
        <lane id=":1513962148_6_0" index="0" disallow="tram rail_urban rail rail_electric ship" speed="8.33" length="4.03" shape="590.06,739.90 593.56,737.91"/>
    </edge>
    <edge id=":1513962148_7" function="internal">
        <lane id=":1513962148_7_0" index="0" disallow="tram rail_urban rail rail_electric ship" speed="8.33" length="7.61" shape="590.06,739.90 591.47,739.49 592.81,740.05 594.06,741.56 595.23,744.03"/>
    </edge>
    <edge id=":1513962148_8" function="internal">
        <lane id=":1513962148_8_0" index="0" disallow="tram rail_urban rail rail_electric ship" speed="8.33" length="4.82" shape="590.06,739.90 591.55,739.96 592.33,740.45 592.40,741.37 591.77,742.72"/>
    </edge>
    <edge id=":1675278581_0" function="internal">
        <lane id=":1675278581_0_0" index="0" disallow="tram rail_urban rail rail_electric ship" speed="8.33" length="7.35" shape="203.85,284.28 202.99,282.49 202.86,280.81 203.47,279.24 204.81,277.77"/>
    </edge>
    <edge id=":1675278581_1" function="internal">
        <lane id=":1675278581_1_0" index="0" disallow="tram rail_urban rail rail_electric ship" speed="8.33" length="2.82" shape="203.85,284.28 203.85,282.80 204.31,281.99 204.71,281.94"/>
    </edge>
    <edge id=":1675278581_4" function="internal">
        <lane id=":1675278581_4_0" index="0" speed="8.33" length="2.00" shape="204.71,281.94 205.22,281.88 206.59,282.45"/>
    </edge>
    <edge id=":1675278581_2" function="internal">
        <lane id=":1675278581_2_0" index="0" disallow="tram rail_urban rail rail_electric ship" speed="8.33" length="2.40" shape="206.91,280.32 206.47,280.80 206.27,281.31 206.31,281.86 206.59,282.45"/>
    </edge>
    <edge id=":1675278581_3" function="internal">
        <lane id=":1675278581_3_0" index="0" disallow="tram rail_urban rail rail_electric ship" speed="8.33" length="2.16" shape="206.91,280.32 205.43,280.47 204.81,280.20"/>
    </edge>
    <edge id=":1675278581_5" function="internal">
        <lane id=":1675278581_5_0" index="0" speed="8.33" length="2.66" shape="204.81,280.20 204.59,280.10 204.38,279.20 204.81,277.77"/>
    </edge>
    <edge id=":1675278585_0" function="internal">
        <lane id=":1675278585_0_0" index="0" disallow="tram rail_urban rail rail_electric ship" speed="8.33" length="5.25" shape="308.79,208.34 307.90,207.16 306.89,206.62 305.76,206.74 304.49,207.52"/>
    </edge>
    <edge id=":1675278585_1" function="internal">
        <lane id=":1675278585_1_0" index="0" disallow="tram rail_urban rail rail_electric ship" speed="8.33" length="10.48" shape="308.79,208.34 307.63,205.50 307.41,202.97 308.13,200.75 309.79,198.83"/>
    </edge>
    <edge id=":1675278585_2" function="internal">
        <lane id=":1675278585_2_0" index="0" disallow="tram rail_urban rail rail_electric ship" speed="8.33" length="4.82" shape="308.79,208.34 308.92,206.86 309.45,206.11 310.37,206.07 311.69,206.77"/>
    </edge>
    <edge id=":1675278585_3" function="internal">
        <lane id=":1675278585_3_0" index="0" disallow="tram rail_urban rail rail_electric ship" speed="8.33" length="5.90" shape="311.90,201.37 311.07,202.38 310.76,203.62 310.97,205.08 311.69,206.77"/>
    </edge>
    <edge id=":1675278585_4" function="internal">
        <lane id=":1675278585_4_0" index="0" disallow="tram rail_urban rail rail_electric ship" speed="8.33" length="9.63" shape="311.90,201.37 304.49,207.52"/>
    </edge>
    <edge id=":1675278585_5" function="internal">
        <lane id=":1675278585_5_0" index="0" disallow="tram rail_urban rail rail_electric ship" speed="8.33" length="4.82" shape="311.90,201.37 310.42,201.52 309.57,201.15 309.36,200.25 309.79,198.83"/>
    </edge>
    <edge id=":1675278585_6" function="internal">
        <lane id=":1675278585_6_0" index="0" disallow="tram rail_urban rail rail_electric ship" speed="8.33" length="9.62" shape="302.38,204.98 309.79,198.83"/>
    </edge>
    <edge id=":1675278585_7" function="internal">
        <lane id=":1675278585_7_0" index="0" disallow="tram rail_urban rail rail_electric ship" speed="8.33" length="11.37" shape="302.38,204.98 305.12,203.30 307.58,203.04 309.77,204.20 311.69,206.77"/>
    </edge>
    <edge id=":1675278585_8" function="internal">
        <lane id=":1675278585_8_0" index="0" disallow="tram rail_urban rail rail_electric ship" speed="8.33" length="4.82" shape="302.38,204.98 303.86,204.82 304.71,205.19 304.92,206.09 304.49,207.52"/>
    </edge>
    <edge id=":1675278669_0" function="internal">
        <lane id=":1675278669_0_0" index="0" disallow="tram rail_urban rail rail_electric ship" speed="8.33" length="9.38" shape="566.22,116.87 557.84,121.08"/>
    </edge>
    <edge id=":1675278669_1" function="internal">
        <lane id=":1675278669_1_0" index="0" disallow="tram rail_urban rail rail_electric ship" speed="8.33" length="10.26" shape="566.22,116.87 563.55,117.73 561.23,117.54 559.27,116.29 557.67,113.98"/>
    </edge>
    <edge id=":1675278669_2" function="internal">
        <lane id=":1675278669_2_0" index="0" disallow="tram rail_urban rail rail_electric ship" speed="8.33" length="4.82" shape="566.22,116.87 564.74,116.67 564.01,116.11 564.02,115.19 564.77,113.90"/>
    </edge>
    <edge id=":1675278669_3" function="internal">
        <lane id=":1675278669_3_0" index="0" disallow="tram rail_urban rail rail_electric ship" speed="8.33" length="4.99" shape="560.61,112.50 561.39,113.62 562.35,114.23 563.47,114.32 564.77,113.90"/>
    </edge>
    <edge id=":1675278669_4" function="internal">
        <lane id=":1675278669_4_0" index="0" disallow="tram rail_urban rail rail_electric ship" speed="8.33" length="10.27" shape="560.61,112.50 561.51,115.16 561.35,117.48 560.13,119.45 557.84,121.08"/>
    </edge>
    <edge id=":1675278669_5" function="internal">
        <lane id=":1675278669_5_0" index="0" disallow="tram rail_urban rail rail_electric ship" speed="8.33" length="4.82" shape="560.61,112.50 560.43,113.97 559.88,114.71 558.96,114.72 557.67,113.98"/>
    </edge>
    <edge id=":1675278669_6" function="internal">
        <lane id=":1675278669_6_0" index="0" disallow="tram rail_urban rail rail_electric ship" speed="8.33" length="4.99" shape="556.32,118.16 557.43,117.36 558.03,116.40 558.10,115.28 557.67,113.98"/>
    </edge>
    <edge id=":1675278669_7" function="internal">
        <lane id=":1675278669_7_0" index="0" disallow="tram rail_urban rail rail_electric ship" speed="8.33" length="9.46" shape="556.32,118.16 564.77,113.90"/>
    </edge>
    <edge id=":1675278669_8" function="internal">
        <lane id=":1675278669_8_0" index="0" disallow="tram rail_urban rail rail_electric ship" speed="8.33" length="4.82" shape="556.32,118.16 557.80,118.32 558.55,118.86 558.56,119.78 557.84,121.08"/>
    </edge>
    <edge id=":1675278756_0" function="internal">
        <lane id=":1675278756_0_0" index="0" disallow="tram rail_urban rail rail_electric ship" speed="8.33" length="2.66" shape="585.51,47.84 585.09,47.24 584.58,46.93 583.99,46.90 583.30,47.16"/>
    </edge>
    <edge id=":1675278756_1" function="internal">
        <lane id=":1675278756_1_0" index="0" disallow="tram rail_urban rail rail_electric ship" speed="8.33" length="2.20" shape="585.51,47.84 585.69,46.36 586.11,45.79"/>
    </edge>
    <edge id=":1675278756_4" function="internal">
        <lane id=":1675278756_4_0" index="0" speed="8.33" length="2.62" shape="586.11,45.79 586.24,45.62 587.16,45.62 588.46,46.35"/>
    </edge>
    <edge id=":1675278756_2" function="internal">
        <lane id=":1675278756_2_0" index="0" disallow="tram rail_urban rail rail_electric ship" speed="8.33" length="8.14" shape="581.69,44.28 583.79,43.48 585.61,43.55 587.17,44.51 588.46,46.35"/>
    </edge>
    <edge id=":1675278756_3" function="internal">
        <lane id=":1675278756_3_0" index="0" disallow="tram rail_urban rail rail_electric ship" speed="8.33" length="2.79" shape="581.69,44.28 583.18,44.40 583.94,44.92 583.96,45.30"/>
    </edge>
    <edge id=":1675278756_5" function="internal">
        <lane id=":1675278756_5_0" index="0" speed="8.33" length="2.03" shape="583.96,45.30 583.98,45.84 583.30,47.16"/>
    </edge>
    <edge id=":1675278757_0" function="internal">
        <lane id=":1675278757_0_0" index="0" disallow="tram rail_urban rail rail_electric ship" speed="8.33" length="9.28" shape="418.65,191.32 410.36,195.48"/>
    </edge>
    <edge id=":1675278757_1" function="internal">
        <lane id=":1675278757_1_0" index="0" disallow="tram rail_urban rail rail_electric ship" speed="8.33" length="10.21" shape="418.65,191.32 416.03,192.12 413.73,191.89 411.74,190.64 410.07,188.37"/>
    </edge>
    <edge id=":1675278757_2" function="internal">
        <lane id=":1675278757_2_0" index="0" disallow="tram rail_urban rail rail_electric ship" speed="8.33" length="4.82" shape="418.65,191.32 417.17,191.10 416.45,190.53 416.47,189.61 417.23,188.33"/>
    </edge>
    <edge id=":1675278757_3" function="internal">
        <lane id=":1675278757_3_0" index="0" disallow="tram rail_urban rail rail_electric ship" speed="8.33" length="5.10" shape="412.97,186.80 413.82,187.95 414.81,188.59 415.95,188.72 417.23,188.33"/>
    </edge>
    <edge id=":1675278757_4" function="internal">
        <lane id=":1675278757_4_0" index="0" disallow="tram rail_urban rail rail_electric ship" speed="8.33" length="10.37" shape="412.97,186.80 413.96,189.46 413.86,191.80 412.65,193.81 410.36,195.48"/>
    </edge>
    <edge id=":1675278757_5" function="internal">
        <lane id=":1675278757_5_0" index="0" disallow="tram rail_urban rail rail_electric ship" speed="8.33" length="4.82" shape="412.97,186.80 412.84,188.28 412.31,189.03 411.39,189.06 410.07,188.37"/>
    </edge>
    <edge id=":1675278757_6" function="internal">
        <lane id=":1675278757_6_0" index="0" disallow="tram rail_urban rail rail_electric ship" speed="8.33" length="5.01" shape="408.81,192.57 409.92,191.76 410.50,190.79 410.55,189.66 410.07,188.37"/>
    </edge>
    <edge id=":1675278757_7" function="internal">
        <lane id=":1675278757_7_0" index="0" disallow="tram rail_urban rail rail_electric ship" speed="8.33" length="9.43" shape="408.81,192.57 417.23,188.33"/>
    </edge>
    <edge id=":1675278757_8" function="internal">
        <lane id=":1675278757_8_0" index="0" disallow="tram rail_urban rail rail_electric ship" speed="8.33" length="4.82" shape="408.81,192.57 410.29,192.72 411.04,193.25 411.06,194.17 410.36,195.48"/>
    </edge>
    <edge id=":1675278761_0" function="internal">
        <lane id=":1675278761_0_0" index="0" disallow="tram rail_urban rail rail_electric ship" speed="8.33" length="5.13" shape="389.87,151.14 389.02,149.98 388.02,149.35 386.88,149.25 385.59,149.68"/>
    </edge>
    <edge id=":1675278761_1" function="internal">
        <lane id=":1675278761_1_0" index="0" disallow="tram rail_urban rail rail_electric ship" speed="8.33" length="10.52" shape="389.87,151.14 388.86,148.43 388.99,146.07 390.25,144.07 392.63,142.43"/>
    </edge>
    <edge id=":1675278761_2" function="internal">
        <lane id=":1675278761_2_0" index="0" disallow="tram rail_urban rail rail_electric ship" speed="8.33" length="4.82" shape="389.87,151.14 390.00,149.66 390.53,148.91 391.45,148.88 392.77,149.57"/>
    </edge>
    <edge id=":1675278761_3" function="internal">
        <lane id=":1675278761_3_0" index="0" disallow="tram rail_urban rail rail_electric ship" speed="8.33" length="5.05" shape="394.10,145.39 392.95,146.18 392.35,147.14 392.29,148.27 392.77,149.57"/>
    </edge>
    <edge id=":1675278761_4" function="internal">
        <lane id=":1675278761_4_0" index="0" disallow="tram rail_urban rail rail_electric ship" speed="8.33" length="9.53" shape="394.10,145.39 385.59,149.68"/>
    </edge>
    <edge id=":1675278761_5" function="internal">
        <lane id=":1675278761_5_0" index="0" disallow="tram rail_urban rail rail_electric ship" speed="8.33" length="4.82" shape="394.10,145.39 392.62,145.20 391.89,144.64 391.89,143.72 392.63,142.43"/>
    </edge>
    <edge id=":1675278761_6" function="internal">
        <lane id=":1675278761_6_0" index="0" disallow="tram rail_urban rail rail_electric ship" speed="8.33" length="9.59" shape="384.08,146.75 392.63,142.43"/>
    </edge>
    <edge id=":1675278761_7" function="internal">
        <lane id=":1675278761_7_0" index="0" disallow="tram rail_urban rail rail_electric ship" speed="8.33" length="10.37" shape="384.08,146.75 386.72,145.84 389.05,146.01 391.06,147.25 392.77,149.57"/>
    </edge>
    <edge id=":1675278761_8" function="internal">
        <lane id=":1675278761_8_0" index="0" disallow="tram rail_urban rail rail_electric ship" speed="8.33" length="4.82" shape="384.08,146.75 385.55,146.92 386.30,147.46 386.31,148.38 385.59,149.68"/>
    </edge>
    <edge id=":1675278833_0" function="internal">
        <lane id=":1675278833_0_0" index="0" disallow="tram rail_urban rail rail_electric ship" speed="8.33" length="9.35" shape="613.98,89.44 605.91,94.16"/>
    </edge>
    <edge id=":1675278833_1" function="internal">
        <lane id=":1675278833_1_0" index="0" disallow="tram rail_urban rail rail_electric ship" speed="8.33" length="10.55" shape="613.98,89.44 611.27,90.49 608.90,90.40 606.89,89.16 605.22,86.78"/>
    </edge>
    <edge id=":1675278833_2" function="internal">
        <lane id=":1675278833_2_0" index="0" disallow="tram rail_urban rail rail_electric ship" speed="8.33" length="4.82" shape="613.98,89.44 612.50,89.33 611.73,88.81 611.69,87.89 612.36,86.56"/>
    </edge>
    <edge id=":1675278833_3" function="internal">
        <lane id=":1675278833_3_0" index="0" disallow="tram rail_urban rail rail_electric ship" speed="8.33" length="5.05" shape="608.16,85.29 608.96,86.43 609.93,87.03 611.06,87.07 612.36,86.56"/>
    </edge>
    <edge id=":1675278833_4" function="internal">
        <lane id=":1675278833_4_0" index="0" disallow="tram rail_urban rail rail_electric ship" speed="8.33" length="10.26" shape="608.16,85.29 609.11,88.00 609.05,90.37 607.98,92.43 605.91,94.16"/>
    </edge>
    <edge id=":1675278833_5" function="internal">
        <lane id=":1675278833_5_0" index="0" disallow="tram rail_urban rail rail_electric ship" speed="8.33" length="4.82" shape="608.16,85.29 607.98,86.77 607.43,87.51 606.51,87.51 605.22,86.78"/>
    </edge>
    <edge id=":1675278833_6" function="internal">
        <lane id=":1675278833_6_0" index="0" disallow="tram rail_urban rail rail_electric ship" speed="8.33" length="5.24" shape="604.19,91.34 605.21,90.47 605.72,89.43 605.72,88.19 605.22,86.78"/>
    </edge>
    <edge id=":1675278833_7" function="internal">
        <lane id=":1675278833_7_0" index="0" disallow="tram rail_urban rail rail_electric ship" speed="8.33" length="9.46" shape="604.19,91.34 612.36,86.56"/>
    </edge>
    <edge id=":1675278833_8" function="internal">
        <lane id=":1675278833_8_0" index="0" disallow="tram rail_urban rail rail_electric ship" speed="8.33" length="4.82" shape="604.19,91.34 605.68,91.40 606.46,91.89 606.54,92.81 605.91,94.16"/>
    </edge>
    <edge id=":1675278855_0" function="internal">
        <lane id=":1675278855_0_0" index="0" disallow="tram rail_urban rail rail_electric ship" speed="8.33" length="5.01" shape="538.30,75.68 537.52,74.55 536.56,73.95 535.43,73.88 534.13,74.33"/>
    </edge>
    <edge id=":1675278855_1" function="internal">
        <lane id=":1675278855_1_0" index="0" disallow="tram rail_urban rail rail_electric ship" speed="8.33" length="10.26" shape="538.30,75.68 537.39,73.01 537.51,70.66 538.67,68.66 540.87,66.98"/>
    </edge>
    <edge id=":1675278855_2" function="internal">
        <lane id=":1675278855_2_0" index="0" disallow="tram rail_urban rail rail_electric ship" speed="8.33" length="4.82" shape="538.30,75.68 538.48,74.20 539.03,73.46 539.96,73.46 541.25,74.19"/>
    </edge>
    <edge id=":1675278855_3" function="internal">
        <lane id=":1675278855_3_0" index="0" disallow="tram rail_urban rail rail_electric ship" speed="8.33" length="5.08" shape="542.47,69.87 541.40,70.69 540.84,71.69 540.79,72.85 541.25,74.19"/>
    </edge>
    <edge id=":1675278855_4" function="internal">
        <lane id=":1675278855_4_0" index="0" disallow="tram rail_urban rail rail_electric ship" speed="8.33" length="9.46" shape="542.47,69.87 534.13,74.33"/>
    </edge>
    <edge id=":1675278855_5" function="internal">
        <lane id=":1675278855_5_0" index="0" disallow="tram rail_urban rail rail_electric ship" speed="8.33" length="4.82" shape="542.47,69.87 540.99,69.75 540.23,69.23 540.19,68.31 540.87,66.98"/>
    </edge>
    <edge id=":1675278855_6" function="internal">
        <lane id=":1675278855_6_0" index="0" disallow="tram rail_urban rail rail_electric ship" speed="8.33" length="9.36" shape="532.62,71.40 540.87,66.98"/>
    </edge>
    <edge id=":1675278855_7" function="internal">