<?xml version="1.0" encoding="UTF-8"?>

<!-- generated on Thu Jul 26 17:27:41 2018 by SUMO duarouter Version 0.32.0
<?xml version="1.0" encoding="UTF-8"?>

<configuration xmlns:xsi="http://www.w3.org/2001/XMLSchema-instance" xsi:noNamespaceSchemaLocation="http://sumo.dlr.de/xsd/duarouterConfiguration.xsd">

    <input>
        <net-file value="map.net.xml"/>
        <additional-files value="30km.add.xml"/>
        <route-files value="trips.trips.xml"/>
    </input>

    <output>
        <output-file value="map.rou.xml"/>
        <alternatives-output value="map.rou.alt.xml"/>
    </output>

    <processing>
        <ignore-errors value="true"/>
    </processing>

    <time>
        <begin value="0"/>
        <end value="100.0"/>
    </time>

    <report>
        <no-warnings value="true"/>
        <no-step-log value="true"/>
    </report>

</configuration>
-->

<routes xmlns:xsi="http://www.w3.org/2001/XMLSchema-instance" xsi:noNamespaceSchemaLocation="http://sumo.dlr.de/xsd/routes_file.xsd">
    <vType id="30km" maxSpeed="8.33"/>
    <vehicle id="0" type="30km" depart="0.00">
        <route edges="169149335#2 -195271278#2 -195271278#1 -169149230 -169149335#1 169149335#1 169149230 195271278#1 -195670080#5 -195670080#4 -195670101#1 -195670101#0 -169157395#4 -169157395#3 169157437#0 -195670078#1 195670112#0 195670112#1 -195670112#1 -195670112#0 195670078#1 195670078#2 195670078#3 -155096434#3 155096423#0 155096423#1 155096423#2 155096423#3 155096421#2 155096421#3 169155959#0 169155959#1 169155959#2 366633015#0 -197721999 197721999 -197721999 -169156000#1 395074679#0 -366633015#2 -366633015#1 -366633015#0 -169155959#2 -169155959#1 -169155959#0 -155096421#3 -155096421#2 -155096423#3 -155096423#2 -155096423#1 -155096423#0 155096434#3 155096434#4 155096434#5 169157395#0 169157395#1 169157395#2 169157395#3 169157395#4 195670101#0 -195670101#0 195670101#0 195670101#1 -195670080#3 -195670080#2 -195670080#1 195670098"/>
    </vehicle>
    <vehicle id="1" type="30km" depart="0.00">
        <route edges="-155096433#6 155096428 155096421#1 -155096423#3 -155096423#2 -155096423#1 -155096423#0 155096434#3 155096434#4 155096434#5 155096434#6 -155096434#6 155096434#6 155096434#7 195271278#0 -169149230 -169149335#1 169149226 -155096434#7 -155096434#6 -155096434#5 -155096434#4 -195670078#3 195670102 -169157437#1 195670078#2 195670078#3 -155096434#3 155096423#0 155096423#1 155096423#2 155096423#3 155096421#2 155096422#0 155096422#1 169155979 -155096425#0 155096433#2 155096433#3 155096433#4 -155096433#4 -155096433#3 -155096433#2 155096425#0 155096425#1 155096425#2 155096425#3 155096425#4 155096424#7"/>
    </vehicle>
    <vehicle id="2" type="30km" depart="0.00">
        <route edges="195670076#1 -195670076#1 -195670105#1 -195670105#0 -195670080#4 -195670080#3 -195670080#2 -195670080#1 -195670080#0 155096434#7 -392533658#2 -392533658#1 -392533658#0 -242175885#6 -242175885#5 -242175885#4 -242175885#3 -242175885#2 -242175885#1 -242175885#0 197101136#0 197101145#0 197101145#1 197101145#2 197101145#3 197101145#4 -196937014#0 242175885#1 242175885#2 392533659 -195670113#3 155096423#3 155096421#2 155096421#3 169155959#0 169155959#1 169155978 -155096425#2 -155096425#1 -155096425#0 155096433#2 -366633022 -249153701#1 -249153701#0 -155096429#1 155096421#0 155096421#1 -155096423#3 -155096423#2 -155096423#1 -155096423#0 155096434#3 -195670078#3 195670102 -195670102 -195670078#2 -195670078#1 195670112#0 -195670112#0 195670078#1 -169157437#0 -169157395#2 -169157395#1"/>
    </vehicle>
    <vehicle id="3" type="30km" depart="0.00">
        <route edges="-197101141#1 196936364 -242175885#5 -242175885#4 -242175885#3 392533659 -195670113#3 155096423#3 155096421#2 155096421#3 169155959#0 169155959#1 169155959#2 366633015#0 -197721999 197721999 -366633015#0 -169155976#1 -395074679#3 -395074679#2 -366633015#1 -366633015#0 -169155959#2 -169155959#1 -169155959#0 -155096421#3 -155096421#2 -155096423#3 -155096423#2 -155096423#1 -155096423#0 155096434#3 155096434#4 155096434#5 169157395#0 169157395#1 169157395#2 169157395#3 -195670106 195670106 -169157395#3 -169157395#2 -169157395#1 -169157395#0 -155096434#5 -155096434#4 -155096434#3 155096423#0 155096423#1 155096423#2 155096423#3 155096421#2 155096422#0 -155096422#0 -155096421#2 -155096423#3 195670113#3 -392533659 -242175885#2 -242175885#1 196937014#0 -197101145#4 -197101145#3 -197101145#2 -197101145#1 -197101145#0 197101145#0 197101145#1 197101145#2 197101145#3 197101145#4 -196937014#0 242175885#1 242175885#2 392533659 -195670113#3 155096423#3 155096421#2 155096421#3 155096421#4 -169155975#2 -169155975#1"/>
    </vehicle>
    <vehicle id="4" type="30km" depart="0.00">
        <route edges="155096433#4 -155096433#4 -155096433#3 -155096433#2 155096425#0 155096425#1 155096425#2 155096425#3 197722005#0 -169156000#2 197721999 366633015#1 -395074679#1 -395074679#0 395074679#0 -366633015#2 -366633015#1 -366633015#0 -169155959#2 -169155959#1 395074681 -169155975#0 169155976#1 -169155959#2 -169155959#1 -169155959#0 -155096421#3 -155096421#2 -155096423#3 -155096423#2 -155096423#1 -155096423#0 155096434#3 155096434#4 155096434#5 169157395#0 169157395#1 169157395#2 169157395#3 169157395#4 195670101#0 -195670101#0 -169157395#4 -169157395#3 -169157395#2 -169157395#1 -169157395#0 -155096434#5 -155096434#4 -155096434#3 155096423#0 155096423#1 155096423#2 155096423#3 155096421#2 155096421#3 169155959#0 169155959#1 169155959#2 366633015#0 -366633015#0 -197722005#1 -197722005#0 155096425#4"/>
    </vehicle>
    <vehicle id="5" type="30km" depart="0.00">
        <route edges="-395074685#2 -395074685#1 -395074685#0 195670113#0 195670113#1 195670113#2 -155096423#2 -155096423#1 -155096423#0 155096434#3 155096434#4 155096434#5 169157395#0 169157395#1 195670100 -195670080#1 195670098 -169157395#0 -155096434#5 -155096434#4 -155096434#3 155096423#0 155096423#1 155096423#2 155096423#3 155096421#2 155096421#3 155096421#4 -169155975#2 -169155975#1 -169155975#0 169155976#1 -197722005#1 -197722005#0 -155096425#3 -155096425#2 169155983 -155096422#2 -155096422#1 -155096422#0 -155096421#2 -155096423#3 -155096423#2 -155096423#1 -155096423#0 155096434#3 155096434#4 155096434#5 155096434#6 155096434#7 -169149226 169149226 -155096434#7 -155096434#6 169157395#0 169157395#1 169157395#2 169157395#3 169157395#4 195670101#0 195670101#1 195670080#4 195670080#5 195271278#2 195271278#3 195271278#4"/>
    </vehicle>
    <vehicle id="6" type="30km" depart="0.00">
        <route edges="395074679#0 -366633015#2 -366633015#1 -366633015#0 -169155959#2 -169155959#1 -169155959#0 -155096421#3 -155096421#2 -155096423#3 195670113#3 -392533659 -242175885#2 -242175885#1 196937014#0 -197101145#4 395486584 -395486584 197101145#4 -196937014#0 242175885#1 242175885#2 392533659 -195670113#3 155096423#3 -155096421#1 -155096421#0 155096429#1 249153701#0 366633021#1 155096433#4 -155096429#2 -155096429#1 155096421#0 155096421#1 -155096423#3 -155096423#2 -155096423#1 -155096423#0 155096434#3 155096434#4 155096434#5 155096434#6 155096434#7 -169149226 169149335#1 169149230 -195271278#0 -155096434#7 -155096434#6 -155096434#5 -155096434#4 -155096434#3 155096423#0 155096423#1 155096423#2 155096423#3 155096421#2 155096421#3 169155959#0 169155959#1 169155959#2 366633015#0 366633015#1 -395074679#1 -395074679#0 -169156000#0 169155970 -155096424#7 -155096424#6 -155095495 -155096425#3 -155096425#2 -155096425#1 -155096425#0 155096433#2 -366633022 -249153701#1 -249153701#0 -155096429#1 155096421#0 155096421#1 -155096423#3 -155096423#2 -155096423#1 -155096423#0 155096434#3"/>
    </vehicle>
    <vehicle id="7" type="30km" depart="0.00">
        <route edges="155096423#3 -155096423#3 -155096423#2 -155096423#1 -155096423#0 155096434#3 155096434#4 155096434#5 169157395#0 169157395#1 169157395#2 169157395#3 169157395#4 195670101#0 -195670107#1 195670107#1 -195670101#0 -169157395#4 -169157395#3 -169157395#2 -169157395#1 -169157395#0 -155096434#5 -155096434#4 -155096434#3 155096423#0 155096423#1 155096423#2 -195670113#2 -195670113#1 -195670113#0 395074685#0 395074685#1 395074685#2 395074685#3 -195670083#0 -155095488#1 155095489 -155096424#2 -249153701#4 -249153701#3 -249153701#2 -249153701#1 -249153701#0 -155096429#1 155096421#0 155096421#1 -155096423#3 195670113#3 -392533660 -242175885#4 -242175885#3 392533659 -195670113#3 155096423#3 155096421#2 155096421#3 169155959#0 169155959#1 169155959#2 -169155976#1 -395074679#3 395074679#3 169155976#1 -169155959#2 -169155959#1 -169155959#0 -155096421#3 -155096421#2 -155096421#1 -155096421#0 -155096429#0 -195670113#1 -395074686#2 -395074686#1 -395074686#0 155096434#2 155096423#0 155096423#1 155096423#2 155096423#3 155096421#2 155096421#3 155096421#4 -169155975#2"/>
    </vehicle>
    <vehicle id="8" type="30km" depart="0.00">
        <route edges="366633020 -366633020 -249153701#3 -249153701#2 -249153701#1 -249153701#0 -155096429#1 155096421#0 155096421#1 -155096423#3 -155096423#2 -155096423#1 -155096423#0 155096434#3 -195670078#3 195670102 -195670102 -195670078#2 -195670078#1 195670112#0 195670103#0 195670103#1 -195670108#0 195670078#0 195670078#1 -169157437#0 -169157395#2 -169157395#1 -169157395#0 155096434#6 155096434#7 -392533658#2 -392533658#1 197101141#0 -197101141#0 -392533658#0 -242175885#6 -242175885#5 -242175885#4 -242175885#3 392533659 -195670113#3 -195670113#2 -195670113#1 -395074686#2 395074686#2 -195670113#0 366633021#0 249153701#1 249153701#2 -395074684 395074684 -249153701#2 366633022 -155096433#2 155096425#0 -169155979"/>
    </vehicle>
    <vehicle id="9" type="30km" depart="0.00">
        <route edges="196936364 242175885#6 392533658#0 392533658#1 392533658#2 -155096434#7 -155096434#6 169157395#0 169157395#1 169157395#2 -169157395#2 -169157395#1 -169157395#0 -155096434#5 -155096434#4 -155096434#3 155096423#0 155096423#1 155096423#2 155096423#3 -155096421#1 -155096421#0 155096429#1 155096429#2 -155096429#2 -155096429#1 155096421#0 155096421#1 -155096423#3 -155096423#2 155096423#2 -155096423#2 -155096423#1 155096423#1 155096423#2 155096423#3 155096421#2 155096421#3 169155959#0 169155959#1 169155959#2 -169155976#1 169155975#0 169155975#1 169155975#2 -155096421#4 -155096421#3 -155096421#2 -155096423#3 195670113#3 -392533660 392533660"/>
    </vehicle>
    <vehicle id="10" type="30km" depart="0.00">
        <route edges="557177561#1 -195670082 195271278#5 195271278#6 195670093 -557177562 195670074#1 195670095 -557177561#1 -557177561#0 -195670076#1 -195670105#1 -195670105#0 -195670080#4 -195670080#3 -195670080#2 -195670080#1 -195670080#0 155096434#7 -392533658#2 -392533658#1 -392533658#0 -242175885#6 -242175885#5 -242175885#4 197101133#0 -197101133#0 -242175885#3 392533659 -195670113#3 155096423#3 -155096421#1 -155096421#0 155096429#1 249153701#0 249153701#1 249153701#2 249153701#3 249153701#4 155096424#2 -155096424#2 -249153701#4 -249153701#3 -249153701#2 -249153701#1 -249153701#0 -155096429#1 155096421#0 155096421#1 -155096423#3 -155096423#2 -155096423#1 -155096423#0 155096434#3 155096434#4 155096434#5 155096434#6 155096434#7 -392533658#2 -392533658#1 -392533658#0 -242175885#6 -242175885#5 -242175885#4 -242175885#3 392533659 -392533660"/>
    </vehicle>
    <vehicle id="11" type="30km" depart="0.00">
        <route edges="155096423#0 155096423#1 155096423#2 -195670113#2 -195670113#1 -395074686#2 395074686#2 195670113#1 155096429#0 155096429#1 155096429#2 -155096429#2 -155096429#1 155096421#0 155096421#1 155096421#2 155096422#0 -155096422#0 -155096421#2 -155096423#3 195670113#3 -392533659 242175885#3 197101133#0 -395486585 395486585 -197101133#0 -242175885#3 392533659 -195670113#3 155096423#3 -155096421#1 -155096421#0 155096429#1 249153701#0 249153701#1 249153701#2 249153701#3 249153701#4 155096424#2 -155095489 155095489 -155096424#2 -249153701#4 -249153701#3 -249153701#2 -249153701#1 -249153701#0 -155096429#1 155096421#0 155096421#1 -155096423#3 195670113#3 -392533659 -242175885#2 -242175885#1 196937014#0 -197101145#4 -197101145#3 -197101145#2 -197101145#1 -169149286 366633016 -197101136#1"/>
    </vehicle>
    <vehicle id="12" type="30km" depart="0.00">
        <route edges="-155095495 -155096425#3 -155096425#2 -155096425#1 -155096425#0 155096433#2 -366633022 -249153701#1 -249153701#0 -155096429#1 155096421#0 155096421#1 -155096423#3 -155096423#2 -155096423#1 -155096423#0 -155096434#2 395074686#0 395074686#1 395074686#2 195670113#1 155096429#0 155096421#0 155096421#1 155096421#2 155096421#3 169155959#0 169155959#1 169155959#2 366633015#0 366633015#1 395074679#2 395074679#3 169155976#1 -169155959#2 -169155959#1 -169155959#0 169155959#0 -169155959#0 -155096421#3 -155096421#2 -155096423#3 -155096423#2 -155096423#1 -155096423#0 155096434#3 155096434#4 155096434#5 169157395#0 169157395#1 169157395#2 169157395#3 169157395#4 195670101#0 195670101#1 195670080#4 195670080#5 195271278#2 -195271278#2 -195670080#5 -195670080#4 -195670101#1 -195670101#0 -169157395#4 -169157395#3 -169157395#2 -169157395#1 -169157395#0 -155096434#5 -155096434#4 -155096434#3 155096423#0 155096423#1 155096423#2 155096423#3 -155096421#1 -155096421#0 155096429#1 249153701#0 249153701#1 366633022 -155096433#2 155096425#0 -169155979"/>
    </vehicle>
    <vehicle id="13" type="30km" depart="0.00">
        <route edges="395074683 155096434#1 155096434#2 155096434#3 155096434#4 155096434#5 169157395#0 169157395#1 169157395#2 169157395#3 169157395#4 195670101#0 195670101#1 195670080#4 195670080#5 195271278#2 195271278#3 195271278#4 -195271278#4 -195271278#3 -195271278#2 -195670080#5 -195670080#4 -195670101#1 -195670101#0 -169157395#4 -169157395#3 -169157395#2 -169157395#1 -169157395#0 -155096434#5 -155096434#4 -155096434#3 155096423#0 155096423#1 155096423#2 155096423#3 155096421#2 155096421#3 169155959#0 169155959#1 169155959#2 -197722005#1 197722005#1 -169155959#2 -169155959#1 -169155959#0 -155096421#3 -155096421#2 -155096423#3 195670113#3 -392533659 -242175885#2 -242175885#1 196937014#0 -197101145#4 -197101145#3 -197101145#2 -169149270 -197101141#7 197101141#7 169149270 -197101145#1 -169149286 366633016 -197101136#1 197101145#0 197101145#1 -169149270 -197101141#7 -197101141#6 -197101141#5 -197101141#4 -197101141#3 -197101141#2 -197101141#1 196936364 242175885#6 392533658#0 392533658#1 392533658#2 -155096434#7 -155096434#6 -155096434#5 -155096434#4 -195670078#3 195670102 -195670102"/>
    </vehicle>
    <vehicle id="14" type="30km" depart="0.00">
        <route edges="197101141#3 197101141#4 197101141#5 197101141#6 169149267 -169149267 169149267 197101145#3 197101145#4 -196937014#0 242175885#1 242175885#2 242175885#3 242175885#4 242175885#5 242175885#6 392533658#0 392533658#1 392533658#2 -155096434#7 -155096434#6 -155096434#5 -155096434#4 -195670078#3 195670102 -169157437#1 195670078#2 195670078#3 -155096434#3 155096423#0 155096423#1 155096423#2 155096423#3 155096421#2 155096421#3 169155959#0 169155959#1 169155959#2 -169155976#1 -395074679#3 169155984#0 169155976#0 169155976#1 -169155959#2 -169155959#1 -169155959#0 -155096421#3 -155096421#2 -155096423#3 -155096423#2 -155096423#1 -155096423#0 155096434#3 155096434#4 155096434#5 169157395#0 169157395#1 169157395#2 169157395#3 169157395#4 169157395#5 557177561#1 -195670095 -195670074#1 557177562 -195670093 -195271278#6 -195271278#5 -195271278#4 -195271278#3 -195271278#2 -195670080#5 -195670080#4 -195670101#1 -195670101#0 -169157395#4 -169157395#3 -169157395#2 -169157395#1 -169157395#0 -155096434#5 -155096434#4 -155096434#3 155096423#0 155096423#1 155096423#2 155096423#3 155096421#2 155096422#0 -155096422#0 155096421#3 169155959#0 169155959#1 -169155959#1"/>
    </vehicle>
    <vehicle id="15" type="30km" depart="0.00">
        <route edges="-196936364 196936364 -242175885#5 -242175885#4 -242175885#3 392533659 -195670113#3 155096423#3 -155096421#1 -155096421#0 155096429#1 249153701#0 249153701#1 249153701#2 249153701#3 249153701#4 155096424#2 155096424#3 155096424#4 155096424#5 -155095495 -155096425#3 -155096425#2 -155096425#1 -155096425#0 155096433#2 -366633022 -249153701#1 -249153701#0 -155096429#1 155096421#0 155096421#1 -155096423#3 -155096423#2 -155096423#1 -155096423#0 155096434#3 155096434#4 155096434#5 155096434#6 155096434#7 -169149226 169149335#1 169149230 -195271278#0 -392533658#2 -392533658#1 -392533658#0 -242175885#6 -242175885#5 -242175885#4 -242175885#3 -242175885#2 -242175885#1 196937014#0 -197101145#4 -197101145#3 -197101145#2 -197101145#1 -169149286 366633016 -197101136#1 197101145#0 197101145#1 197101145#2 197101145#3 197101145#4 -196937014#0 242175885#1 242175885#2 242175885#3 242175885#4 242175885#5 242175885#6 392533658#0 392533658#1 392533658#2 195271278#0 -169149230 169149335#2 -195271278#2 -195670080#5 -195670080#4 -195670101#1 -195670101#0 -169157395#4 -169157395#3 -169157395#2 -169157395#1 -169157395#0 -155096434#5 -155096434#4 -155096434#3 155096423#0 155096423#1 155096423#2 155096423#3 -155096421#1 -155096421#0 155096429#1 249153701#0 366633021#1 -155096433#3 -155096433#2 155096425#0 155096425#1 155096425#2 155096425#3 197722005#0 197722005#1 -169155976#1 -169155976#0 169155984#1"/>
    </vehicle>
    <vehicle id="16" type="30km" depart="0.00">
        <route edges="-195670108#1 -195670103#1 -195670103#0 -195670112#0 195670078#1 195670078#2 195670078#3 -155096434#3 155096423#0 155096423#1 155096423#2 155096423#3 155096421#2 155096421#3 169155959#0 169155959#1 169155978 -155096425#2 -155096425#1 -155096425#0 155096433#2 -366633022 -249153701#1 -249153701#0 -155096429#1 155096421#0 155096421#1 155096421#2 155096421#3 169155959#0 -169155959#0 -155096421#3 -155096421#2 -155096423#3 -155096423#2 -155096423#1 -155096423#0 155096434#3 -195670078#3 -195670078#2 -195670078#1 195670078#1 -169157437#0 -169157395#2 -169157395#1 -169157395#0 155096434#6 155096434#7 -392533658#2 -392533658#1 -392533658#0 -242175885#6 -242175885#5 392533660 -392533660 242175885#5 242175885#6 392533658#0 392533658#1 392533658#2 195271278#0 195271278#1 195271278#2 195271278#3 195271278#4 195271278#5 -195271278#5 -195271278#4 -195271278#3 -195271278#2 -195670080#5 -195670080#4 -195670101#1 -195670101#0 -169157395#4 -169157395#3 169157437#0 -195670078#1 195670112#0 195670112#1 -195670110#1"/>
    </vehicle>
    <vehicle id="17" type="30km" depart="0.00">
        <route edges="-197722005#1 197722005#1 -169155959#2 -169155959#1 -169155959#0 -155096421#3 -155096421#2 -155096423#3 -155096423#2 -155096423#1 -155096423#0 155096434#3 155096434#4 155096434#5 169157395#0 169157395#1 169157395#2 169157395#3 169157395#4 195670101#0 195670101#1 195670080#4 195670105#0 195670105#1 -195670105#1 -195670105#0 -195670080#4 -195670101#1 -195670101#0 -169157395#4 -169157395#3 -169157395#2 -169157395#1 -169157395#0 -155096434#5 -155096434#4 -155096434#3 155096423#0 155096423#1 155096423#2 155096423#3 155096421#2 155096421#3 155096421#4 -169155975#2 -169155975#1 -169155975#0 169155976#1 -169155959#2 -169155959#1 -169155959#0 -155096421#3 -155096421#2 -155096423#3 195670113#3 -392533660 242175885#5 -196936364 -197101141#0 392533658#1 392533658#2 -155096434#7 -155096434#6 -155096434#5 -155096434#4 -155096434#3 -155096434#2 395074686#0 395074686#1 395074686#2 195670113#1 155096429#0 155096421#0 155096421#1 155096421#2 155096421#3 155096421#4 -169155975#2 -169155975#1 -169155975#0 169155976#1 -169155959#2 -169155959#1 -169155959#0 -155096421#3 -155096421#2 -155096423#3 195670113#3 -392533659 392533659"/>
    </vehicle>
    <vehicle id="18" type="30km" depart="0.00">
        <route edges="197101136#1 -366633016 169149286 197101145#1 197101145#2 197101145#3 197101145#4 -196937014#0 242175885#1 242175885#2 392533659 -195670113#3 155096423#3 155096421#2 155096421#3 155096421#4 -155096421#4 -155096421#3 -155096421#2 -155096423#3 -155096423#2 -155096423#1 -155096423#0 155096434#3 155096434#4 155096434#5 169157395#0 169157395#1 169157395#2 169157395#3 169157395#4 195670101#0 195670101#1 195670080#4 195670080#5 195271278#2 195271278#3 195271278#4 195271278#5 195670074#0 195670074#1 195670095 -557177561#1 -557177561#0 -195670076#1 -195670105#1 -195670105#0 -195670080#4 -195670080#3 -195670080#2 -195670080#1 -195670080#0 155096434#7 -392533658#2 -392533658#1 -392533658#0 -242175885#6 -242175885#5 -242175885#4 197101133#0 -395486585 196936362#1 196937013 197101137#1 197101141#4 -196937014#1 -196937014#0 242175885#1 242175885#2 392533659 -195670113#3 155096423#3 -155096421#1 -155096428 155096428 155096421#1 -155096423#3 195670113#3 -392533660 242175885#5 -196936364 196936364 242175885#6 392533658#0 392533658#1 392533658#2 -155096434#7 -155096434#6 -155096434#5 -155096434#4 -155096434#3 -155096434#2 -155096434#1 -155096434#0"/>
    </vehicle>
    <vehicle id="19" type="30km" depart="0.00">
        <route edges="-169155984#0 395074679#3 169155976#1 -169155959#2 -169155959#1 -169155959#0 -155096421#3 -155096421#2 -155096423#3 195670113#3 -392533660 242175885#5 242175885#6 392533658#0 392533658#1 392533658#2 -392533658#2 -392533658#1 -392533658#0 -242175885#6 -242175885#5 -242175885#4 -242175885#3 -242175885#2 -242175885#1 -242175885#0 242175885#0 242175885#1 242175885#2 392533659 -195670113#3 -195670113#2 -195670113#1 -195670113#0 395074685#0 395074683 155096434#1 155096434#2 155096434#3 155096434#4 155096434#5 155096434#6 155096434#7 -392533658#2 -392533658#1 -392533658#0 -242175885#6 -242175885#5 392533660 -392533659 -242175885#2 -242175885#1 196937014#0 -197101145#4 -197101145#3 -197101145#2 -169149270 -197101141#7 169149267 197101145#3 197101145#4 -196937014#0 242175885#1 242175885#2 392533659 -195670113#3 155096423#3 155096421#2 155096422#0 155096422#1 155096422#2 -169155983"/>
    </vehicle>
    <vehicle id="20" type="30km" depart="0.00">
        <route edges="195670103#1 -195670103#1 -195670103#0 -195670112#0 195670078#1 195670078#2 195670078#3 -155096434#3 -155096434#2 155096434#2 155096423#0 -155096423#0 155096434#3 -195670078#3 -195670078#2 -195670078#1 195670112#0 -195670112#0 195670078#1 195670078#2 195670078#3 -155096434#3 155096423#0 155096423#1 155096423#2 155096423#3 155096421#2 155096421#3 169155959#0 169155959#1 -169155959#1 -169155959#0 -155096421#3 -155096421#2 -155096421#1 -155096421#0 155096429#1 155096429#2 -155096429#2 -155096429#1 155096421#0 155096421#1 -155096423#3 -155096423#2 -155096423#1 -155096423#0 155096434#3 155096434#4 155096434#5 169157395#0 -195670098 195670080#1"/>
    </vehicle>
    <vehicle id="21" type="30km" depart="0.00">
        <route edges="242175885#0 242175885#1 242175885#2 242175885#3 242175885#4 242175885#5 242175885#6 392533658#0 392533658#1 392533658#2 195271278#0 -169149230 169149335#2 -195271278#2 -195670080#5 -195670080#4 -195670101#1 -195670101#0 -169157395#4 -169157395#3 169157437#0 -195670078#1 195670078#1 195670078#2 195670102 -195670102 -195670078#2 -169157437#0 169157395#3 169157395#4 195670101#0 195670101#1 195670080#4 195670080#5 -195271278#1 -195271278#0 -155096434#7 195670080#0 195670080#1 195670080#2 195670080#3 195670080#4 195670105#0 195670105#1 195670076#1 557177561#0 557177561#1 -195670095 -195670074#1 -195670074#0 -195271278#5 -195271278#4 -195271278#3 -195271278#2 -195670080#5 -195670080#4 -195670101#1 -195670101#0 -169157395#4 -169157395#3 169157437#0 -195670078#1 195670112#0 195670112#1 -195670110#1 -195670110#0 195670110#0"/>
    </vehicle>
    <vehicle id="22" type="30km" depart="0.00">
        <route edges="-155095489 155095489 -155096424#2 -249153701#4 -249153701#3 -249153701#2 -249153701#1 -249153701#0 -155096429#1 155096421#0 155096421#1 -155096423#3 195670113#3 -392533659 -242175885#2 -242175885#1 196937014#0 -197101145#4 -197101145#3 -197101145#2 -169149270 169149270 197101145#2 197101145#3 197101145#4 -196937014#0 242175885#1 242175885#2 242175885#3 242175885#4 242175885#5 242175885#6 392533658#0 392533658#1 392533658#2 195271278#0 195271278#1 195271278#2 195271278#3 195271278#4 195271278#5 -195271278#5 -195271278#4 -195271278#3 -195271278#2 -195670080#5 -195670080#4 -195670101#1 -195670101#0 -169157395#4 -169157395#3 -169157395#2 -169157395#1 -169157395#0 -155096434#5 -155096434#4 -155096434#3 155096423#0 155096423#1 155096423#2 155096423#3 155096421#2 155096421#3 -155096421#3 -155096421#2 -155096423#3 -155096423#2 -155096423#1 -155096423#0 155096434#3 155096434#4 155096434#5 169157395#0 169157395#1 169157395#2 169157395#3 169157395#4 195670101#0 195670101#1 195670080#4 195670080#5 195271278#2 195271278#3 195271278#4 195271278#5 195271278#6 195670093 -557177562 195670074#1 195670095 -557177561#1 -169157395#5 -169157395#4 -169157395#3 -169157395#2 -169157395#1 -169157395#0 -155096434#5 -155096434#4 -155096434#3 155096423#0 155096423#1 155096423#2 155096423#3 155096421#2 155096421#3 169155959#0 169155959#1 169155959#2 -169155976#1 -395074679#3 169155984#0 169155976#0 169155976#1 -169155959#2 -169155959#1 -169155959#0 -155096421#3 -155096421#2 -155096423#3 195670113#3 -392533659"/>
    </vehicle>
    <vehicle id="23" type="30km" depart="0.00">
        <route edges="-195670099 195670110#1 -195670112#1 -195670112#0 195670078#1 195670078#2 195670078#3 -155096434#3 155096423#0 155096423#1 155096423#2 155096423#3 -155096421#1 -155096421#0 155096429#1 249153701#0 249153701#1 366633022 -155096433#2 155096425#0 -169155979 -155096422#1 -155096422#0 -155096421#2 -155096421#1 -155096421#0 -155096429#0 -195670113#1 -195670113#0 366633021#0 -249153701#0 -155096429#1 155096421#0 155096421#1 -155096423#3 -155096423#2 -155096423#1 -155096423#0 155096434#3 155096434#4 155096434#5 169157395#0 169157395#1 169157395#2 169157395#3 169157395#4 195670101#0 -195670107#1 195670107#1 -195670101#0 -169157395#4 -169157395#3 -169157395#2 -169157395#1 -169157395#0 -155096434#5 -155096434#4 -155096434#3 155096423#0 155096423#1 155096423#2 155096423#3 155096421#2 155096421#3 169155959#0 -169155959#0 -155096421#3 -155096421#2 -155096423#3 195670113#3 -392533660 242175885#5 242175885#6 392533658#0 392533658#1 392533658#2 -392533658#2 -392533658#1 -392533658#0 -242175885#6 -242175885#5 -242175885#4 -242175885#3 -242175885#2"/>
    </vehicle>
    <vehicle id="24" type="30km" depart="0.00">
        <route edges="195670105#1 -195670105#1 -195670105#0 -195670080#4 -195670101#1 -195670101#0 -169157395#4 -169157395#3 -169157395#2 -169157395#1 -169157395#0 -155096434#5 -155096434#4 -155096434#3 155096423#0 155096423#1 155096423#2 155096423#3 155096421#2 155096422#0 -155096433#6 -155096433#5 -155096433#4 -155096433#3 -155096433#2 155096425#0 155096425#1 155096425#2 155096425#3 197722005#0 197722005#1 -169155976#1 -169155976#0 169155984#1 169155975#2 -155096421#4 -155096421#3 -155096421#2 -155096423#3 195670113#3 -392533659 242175885#3 197101133#0 197101133#1 197101141#2 197101141#3 197101141#4 -196937014#1 -196937014#0 -242175885#0 197101136#0 197101145#0 197101145#1 197101145#2 -197101145#2 197101145#2 197101145#3 197101145#4 -196937014#0 242175885#1 242175885#2 392533659 -195670113#3 155096423#3 -155096421#1 -155096421#0 155096429#1 249153701#0 249153701#1 249153701#2 249153701#3 249153701#4 155096424#2 155096424#3 155096424#4 -155095493 155095488#0"/>
    </vehicle>
    <vehicle id="25" type="30km" depart="0.00">
        <route edges="-395074684 -395074685#1 -395074685#0 195670113#0 195670113#1 195670113#2 -155096423#2 -155096423#1 -155096423#0 155096434#3 155096434#4 155096434#5 155096434#6 155096434#7 195271278#0 -195271278#0 -155096434#7 -155096434#6 -155096434#5 -155096434#4 -155096434#3 155096423#0 155096423#1 155096423#2 155096423#3 155096421#2 155096421#3 169155959#0 169155959#1 169155959#2 -169155976#1 -169155976#0 -169155984#0 395074679#3 169155976#1 -169155959#2 -169155959#1 -169155959#0 -155096421#3 155096422#0 -155096422#0 -155096421#2 -155096423#3 195670113#3 -392533660 242175885#5 242175885#6 392533658#0 392533658#1 392533658#2 -155096434#7 -155096434#6 -155096434#5 -155096434#4 -195670078#3 195670102 -195670102 -195670078#2 -169157437#0 169157395#3 169157395#4 195670101#0 195670101#1 195670080#4 195670080#5 -195271278#1 -169149230 169149335#2"/>
    </vehicle>
    <vehicle id="26" type="30km" depart="0.00">
        <route edges="-195670082 195271278#5 195271278#6 195670093 -195670093 -195271278#6 -195271278#5 -195271278#4 -195271278#3 -195271278#2 -195670080#5 -195670080#4 -195670101#1 -195670101#0 -169157395#4 -169157395#3 -169157395#2 -169157395#1 -169157395#0 -155096434#5 155096434#5 169157395#0 169157395#1 169157395#2 169157395#3 169157395#4 195670101#0 -195670107#1 -195670104 -195670105#0 195670080#5 -195271278#1 -169149230 169149230 -195271278#0 -392533658#2 -392533658#1 -392533658#0 -242175885#6 -242175885#5 -242175885#4 197101133#0 197101133#1 -197101133#1"/>
    </vehicle>
    <vehicle id="27" type="30km" depart="0.00">
        <route edges="195670080#1 195670080#2 195670080#3 195670080#4 195670105#0 195670105#1 195670076#1 557177561#0 557177561#1 -195670082 -195271278#4 -195271278#3 -195271278#2 -195670080#5 -195670080#4 -195670101#1 -195670101#0 -169157395#4 -169157395#3 169157437#0 -195670078#1 195670112#0 195670103#0 195670103#1 195670108#1 195670110#0 195670110#1 -195670112#1 -195670112#0 195670078#1 195670078#2 195670078#3 -155096434#3 155096423#0 155096423#1 155096423#2 155096423#3 -155096421#1 -155096421#0 155096429#1 249153701#0 249153701#1 249153701#2 249153701#3 249153701#4 155096424#2 -155095489 155095489 -155096424#2 -249153701#4 -249153701#3 -249153701#2 -249153701#1 -249153701#0 -155096429#1 155096421#0 155096421#1 -155096423#3 195670113#3 -392533659 -242175885#2 -242175885#1 196937014#0 -197101145#4 -197101145#3 -197101145#2 -197101145#1 -169149286 366633016 -197101136#1 197101145#0 197101145#1 197101145#2 197101145#3 197101145#4 -196937014#0 242175885#1 242175885#2 242175885#3 242175885#4 242175885#5 242175885#6 392533658#0 392533658#1 392533658#2 -155096434#7 -155096434#6 169157395#0 169157395#1 169157395#2 169157437#0 -195670078#1 195670078#1 -169157437#0 -169157395#2 -169157395#1 -169157395#0 155096434#6 155096434#7 -392533658#2 -392533658#1 -392533658#0 -242175885#6 -242175885#5 -242175885#4 197101133#0 -395486585 196936362#1 196937013 -196937013"/>
    </vehicle>