<?xml version="1.0" encoding="UTF-8"?>
<!-- generated on 2018-07-26 17:27:30.628463 by $Id$
  options: <doubleminus>intermediate 5 -n map.net.xml <doubleminus>trip-attributes=type="30km" <doubleminus>additional-file 30km.add.xml -r map.rou.xml -e 100 -l
-->
<routes xmlns:xsi="http://www.w3.org/2001/XMLSchema-instance" xsi:noNamespaceSchemaLocation="http://sumo.dlr.de/xsd/routes_file.xsd">
    <trip id="0" depart="0.00" from="169149335#2" to="195670098" via="169149335#1 -195670112#1 197721999 -169156000#1 -195670101#0"  type="30km"/>
    <trip id="1" depart="0.00" from="-155096433#6" to="155096424#7" via="-155096434#6 -169149335#1 -169157437#1 169155979 -155096433#4"  type="30km"/>
    <trip id="2" depart="0.00" from="195670076#1" to="-169157395#1" via="197101136#0 169155959#1 169155978 195670102 195670112#0"  type="30km"/>
    <trip id="3" depart="0.00" from="-197101141#1" to="-169155975#1" via="-197721999 -395074679#2 -195670106 -155096422#0 -197101145#0"  type="30km"/>
    <trip id="4" depart="0.00" from="155096433#4" to="155096425#4" via="-395074679#0 -169155975#0 -155096423#0 -195670101#0 -366633015#0"  type="30km"/>
    <trip id="5" depart="0.00" from="-395074685#2" to="195271278#4" via="195670100 -169155975#0 169155983 169149226 169157395#4"  type="30km"/>
    <trip id="6" depart="0.00" from="395074679#0" to="155096434#3" via="395486584 155096433#4 169149335#1 -169156000#0 -155096424#6"  type="30km"/>
    <trip id="7" depart="0.00" from="155096423#3" to="-169155975#2" via="-195670107#1 -155095488#1 -392533660 395074679#3 155096434#2"  type="30km"/>
    <trip id="8" depart="0.00" from="366633020" to="-169155979" via="-195670102 -195670108#0 -197101141#0 395074686#2 -395074684"  type="30km"/>
    <trip id="9" depart="0.00" from="196936364" to="392533660" via="169157395#2 155096429#2 155096423#2 155096423#1 169155975#0"  type="30km"/>
    <trip id="10" depart="0.00" from="557177561#1" to="-392533660" via="195670093 195670093 -197101133#0 -155096424#2 155096434#6"  type="30km"/>
    <trip id="11" depart="0.00" from="155096423#0" to="-197101136#1" via="-395074686#2 -155096429#2 155096422#0 395486585 155095489"  type="30km"/>
    <trip id="12" depart="0.00" from="-155095495" to="-169155979" via="-155096434#2 -155096434#2 395074679#2 169155959#0 -195271278#2"  type="30km"/>
    <trip id="13" depart="0.00" from="395074683" to="-195670102" via="195271278#4 197722005#1 -197101141#7 -197101136#1 196936364"  type="30km"/>
    <trip id="14" depart="0.00" from="197101141#3" to="-169155959#1" via="-169149267 -169157437#1 169155984#0 -195670093 -155096422#0"  type="30km"/>
    <trip id="15" depart="0.00" from="-196936364" to="169155984#1" via="155096424#5 169149335#1 -197101136#1 169149335#2 366633021#1"  type="30km"/>
    <trip id="16" depart="0.00" from="-195670108#1" to="-195670110#1" via="169155978 169155959#0 195670078#1 392533660 195271278#5"  type="30km"/>
    <trip id="17" depart="0.00" from="-197722005#1" to="392533659" via="195670105#1 -169155975#0 -197101141#0 -155096434#2 -169155975#0"  type="30km"/>
    <trip id="18" depart="0.00" from="197101136#1" to="-155096434#0" via="155096421#4 195670074#0 -196937014#1 155096428 -196936364"  type="30km"/>
    <trip id="19" depart="0.00" from="-169155984#0" to="-169155983" via="392533658#2 242175885#0 395074683 392533660 -197101141#7"  type="30km"/>
    <trip id="20" depart="0.00" from="195670103#1" to="195670080#1" via="155096434#2 -155096423#0 195670112#0 -169155959#1 -155096429#2"  type="30km"/>
    <trip id="21" depart="0.00" from="242175885#0" to="195670110#0" via="169149335#2 195670078#1 195670102 -195271278#0 -195670074#0"  type="30km"/>
    <trip id="22" depart="0.00" from="-155095489" to="-392533659" via="169149270 195271278#5 -155096421#3 195670093 169155984#0"  type="30km"/>
    <trip id="23" depart="0.00" from="-195670099" to="-242175885#2" via="-169155979 366633021#0 195670107#1 -169155959#0 392533658#2"  type="30km"/>
    <trip id="24" depart="0.00" from="195670105#1" to="155095488#0" via="155096422#0 169155984#1 197101133#1 -242175885#0 -197101145#2"  type="30km"/>
    <trip id="25" depart="0.00" from="-395074684" to="169149335#2" via="-195271278#0 -169155984#0 155096422#0 -392533660 -195670102"  type="30km"/>
    <trip id="26" depart="0.00" from="-195670082" to="-197101133#1" via="-195670093 155096434#5 -195670107#1 -169149230 -392533658#2"  type="30km"/>
    <trip id="27" depart="0.00" from="195670080#1" to="-196937013" via="-195670082 195670108#1 155095489 -197101136#1 195670078#1"  type="30km"/>
    <trip id="28" depart="0.00" from="-195670101#1" to="-195670109" via="169155984#0 196936362#0 155096424#5 155096422#0 169155976#1"  type="30km"/>
    <trip id="29" depart="0.00" from="155096425#4" to="-366633015#1" via="395074681 195670110#1 169155979 197101141#0 -392533659"  type="30km"/>
    <trip id="30" depart="0.00" from="169155975#2" to="-155095488#1" via="392533658#0 195670102 169156000#1 155096428 395074684"  type="30km"/>
    <trip id="31" depart="0.00" from="-169149335#0" to="169157437#1" via="169149335#2 197101136#0 -169156000#0 -169149335#2 -155096434#1"  type="30km"/>
    <trip id="32" depart="0.00" from="-195670108#1" to="-169155959#0" via="-195670083#1 195670080#1 169149270 -395486585 -169149335#1"  type="30km"/>
    <trip id="33" depart="0.00" from="-155096421#3" to="-195271278#0" via="-155096429#2 155096423#1 -155096433#6 -169155975#1 169156000#0"  type="30km"/>
    <trip id="34" depart="0.00" from="169149270" to="242175885#1" via="195670108#1 -195670080#1 -155096425#3 -169149335#1 -366633020"  type="30km"/>
    <trip id="35" depart="0.00" from="395074686#0" to="242175885#4" via="392533659 196936362#0 195670098 -197722005#1 -169155983"  type="30km"/>
    <trip id="36" depart="0.00" from="-195271278#0" to="169155983" via="-242175885#2 169157437#1 169149335#0 -155096425#4 197721999"  type="30km"/>
    <trip id="37" depart="0.00" from="155096424#2" to="366633021#1" via="195670093 197101137#1 -366633015#0 169157395#0 -197101145#4"  type="30km"/>
    <trip id="38" depart="0.00" from="-169155975#0" to="-155096434#1" via="-169155979 195670105#0 -155096433#1 155096433#4 155096424#6"  type="30km"/>
    <trip id="39" depart="0.00" from="-197101141#1" to="-197101137#1" via="155096429#2 155096425#4 -155096422#0 197721999 392533659"  type="30km"/>
    <trip id="40" depart="0.00" from="197101145#3" to="155096433#0" via="195670080#0 -155095488#1 -395486584 195670103#1 195670108#0"  type="30km"/>
    <trip id="41" depart="0.00" from="195271278#0" to="169149286" via="-392533660 -169157437#0 -195670105#0 -195670102 195670093"  type="30km"/>
    <trip id="42" depart="0.00" from="-395074679#3" to="195670102" via="155095495 -366633021#0 195670083#1 -155096434#2 -195670083#0"  type="30km"/>
    <trip id="43" depart="0.00" from="155096424#0" to="-169155976#0" via="-395074679#0 169155978 169149335#0 169155983 169149267"  type="30km"/>
    <trip id="44" depart="0.00" from="-195670078#1" to="169155979" via="-155096422#0 395486584 -195670093 -392533660 366633021#1"  type="30km"/>
    <trip id="45" depart="0.00" from="-169149335#2" to="-195670101#1" via="155096434#1 -366633021#1 169155979 -195670083#1 -195670076#1"  type="30km"/>
    <trip id="46" depart="0.00" from="-155096428" to="-196937013" via="-195670082 -169149286 -169156000#0 195670082 -169157395#5"  type="30km"/>
    <trip id="47" depart="0.00" from="195670078#2" to="-155096421#0" via="169155976#0 -169155976#1 -197722005#1 -155095488#1 155096434#6"  type="30km"/>
    <trip id="48" depart="0.00" from="-195670110#0" to="-169157395#1" via="155096425#0 -197101136#1 -169149230 -195670109 -195271278#4"  type="30km"/>
    <trip id="49" depart="0.00" from="-169155975#1" to="195670074#0" via="-155096434#6 -169149270 -195670106 -392533660 -169157395#5"  type="30km"/>
    <trip id="50" depart="0.00" from="-195670104" to="-195670074#0" via="-195670108#1 395074679#3 196405497 -155096422#0 -155096428"  type="30km"/>
    <trip id="51" depart="0.00" from="-155096429#2" to="169155984#0" via="155096433#4 -196936364 -169155983 169149335#1 -155096429#0"  type="30km"/>
    <trip id="52" depart="0.00" from="-155096434#4" to="197101141#4" via="-169157437#1 155096423#1 -197101141#0 169155975#0 -197101141#4"  type="30km"/>
    <trip id="53" depart="0.00" from="395074684" to="-155096422#2" via="197722005#1 -155096425#1 -395074684 169155975#0 -195670108#1"  type="30km"/>
    <trip id="54" depart="0.00" from="195670099" to="169156000#1" via="-395074679#0 155096428 395074679#2 196936364 -195670082"  type="30km"/>
    <trip id="55" depart="0.00" from="195670082" to="392533659" via="195670108#0 -395074685#1 -169155979 169155984#0 -195670113#3"  type="30km"/>
    <trip id="56" depart="0.00" from="395074680" to="-169155975#1" via="-197101141#4 -195670078#1 195271278#2 -395486585 -195670112#0"  type="30km"/>
    <trip id="57" depart="0.00" from="169157437#0" to="395074684" via="-195271278#2 -169155975#1 -169155983 169155983 155096424#5"  type="30km"/>
    <trip id="58" depart="0.00" from="-395074686#0" to="366633015#1" via="392533659 392533659 395074679#0 155096424#0 195670078#1"  type="30km"/>
    <trip id="59" depart="0.00" from="169156000#2" to="155096423#0" via="366633016 195670105#1 195670102 -169149335#1 197101137#0"  type="30km"/>
    <trip id="60" depart="0.00" from="392533660" to="-366633015#0" via="-169157437#1 -169157437#0 -392533659 -195670112#1 169155959#0"  type="30km"/>
    <trip id="61" depart="0.00" from="-155096433#0" to="-197101133#1" via="-155096421#3 197101141#0 197101141#0 -366633021#0 -169155984#1"  type="30km"/>
    <trip id="62" depart="0.00" from="169156000#0" to="169156000#1" via="-169155983 155096425#1 -195670112#1 155096424#7 195670083#1"  type="30km"/>
    <trip id="63" depart="0.00" from="169155959#0" to="195670082" via="-155096425#0 155096424#3 155095488#1 392533658#2 -195670074#0"  type="30km"/>
    <trip id="64" depart="0.00" from="-169157437#1" to="-395486584" via="195670082 169157437#1 -197722005#0 242175885#0 197101141#2"  type="30km"/>
    <trip id="65" depart="0.00" from="-169155984#1" to="-195670108#0" via="197101141#0 195670102 155096423#2 -195670108#1 395074683"  type="30km"/>
    <trip id="66" depart="0.00" from="-395074684" to="169157437#1" via="-195670113#2 155096423#3 -169155979 -395074679#2 169155984#0"  type="30km"/>
    <trip id="67" depart="0.00" from="196936364" to="197101141#0" via="195670109 -395074679#3 395074679#3 155096421#3 -169149286"  type="30km"/>
    <trip id="68" depart="0.00" from="197722005#1" to="-395074685#2" via="195670112#0 -195670098 169155984#0 -195670113#1 -155096424#0"  type="30km"/>
    <trip id="69" depart="0.00" from="-169155984#1" to="557177561#0" via="169149270 -195670102 -195670083#0 195670110#1 155096434#2"  type="30km"/>
    <trip id="70" depart="0.00" from="242175885#0" to="195670109" via="-197722005#0 -169157437#1 392533658#2 197722005#0 155096434#2"  type="30km"/>
    <trip id="71" depart="0.00" from="-196936364" to="-196936362#0" via="169149230 155096423#1 -366633021#1 -169155984#1 -195670102"  type="30km"/>
    <trip id="72" depart="0.00" from="-195670083#1" to="-155095488#1" via="395074683 169157437#1 366633022 195670080#3 -155096433#3"  type="30km"/>
    <trip id="73" depart="0.00" from="197101145#4" to="-242175885#0" via="-195670112#0 169155979 -169155959#0 195670082 155096424#2"  type="30km"/>
    <trip id="74" depart="0.00" from="-195670108#0" to="169155984#1" via="195670107#1 195670083#0 -155096424#0 155096434#1 -366633021#1"  type="30km"/>
    <trip id="75" depart="0.00" from="-195670076#0" to="-197721999" via="366633021#1 -169156000#0 -195670109 -169155984#0 197101141#0"  type="30km"/>
    <trip id="76" depart="0.00" from="395074685#2" to="-169149335#1" via="195670095 -196405497 366633015#1 -169156000#2 -155096424#2"  type="30km"/>
    <trip id="77" depart="0.00" from="-169149226" to="-195670107#1" via="-169155983 -169155983 -155096429#1 169155983 -169149286"  type="30km"/>
    <trip id="78" depart="0.00" from="-196937014#1" to="169156000#0" via="-197101136#1 -195670106 -392533658#2 -169156000#0 169155984#1"  type="30km"/>
    <trip id="79" depart="0.00" from="-155096433#4" to="195670093" via="-169155978 155096428 195670078#2 -195670100 -169155984#1"  type="30km"/>
    <trip id="80" depart="0.00" from="169157395#1" to="-197722005#0" via="-169157395#0 -195670093 -196936362#0 557177562 395074679#2"  type="30km"/>
    <trip id="81" depart="0.00" from="169149335#1" to="-169149286" via="-155096434#3 195271278#2 -197722005#1 -196937014#0 -195670109"  type="30km"/>
    <trip id="82" depart="0.00" from="195670103#0" to="-395074679#0" via="169155979 195271278#4 169155984#1 -169157437#1 395074680"  type="30km"/>
    <trip id="83" depart="0.00" from="169155983" to="-195670083#0" via="-169155959#1 -169155975#0 155096434#6 -395486584 366633016"  type="30km"/>
    <trip id="84" depart="0.00" from="195670100" to="-155096421#4" via="197101141#4 195670083#0 195670112#0 155096428 -195670078#3"  type="30km"/>
    <trip id="85" depart="0.00" from="155096424#6" to="155096434#3" via="169157395#5 395074679#3 195670076#0 -197101141#1 -155095488#0"  type="30km"/>
    <trip id="86" depart="0.00" from="-155096424#7" to="-155096433#4" via="-169157437#1 195670108#0 197722005#1 -169156000#0 -196405497"  type="30km"/>
    <trip id="87" depart="0.00" from="195670108#0" to="-195670080#3" via="155095495 -197101133#1 195670078#3 195670112#0 155096424#5"  type="30km"/>
    <trip id="88" depart="0.00" from="155096423#3" to="-169155976#0" via="395074685#2 -195670109 -196937014#1 169157437#0 392533658#2"  type="30km"/>
    <trip id="89" depart="0.00" from="-155096434#2" to="169157395#0" via="-169155984#1 195670083#1 169156000#1 195670082 155096434#4"  type="30km"/>
    <trip id="90" depart="0.00" from="395074679#2" to="197722005#0" via="366633021#1 -395074685#3 -155096424#2 195271278#1 197101137#1"  type="30km"/>
    <trip id="91" depart="0.00" from="-169157437#1" to="-197101145#4" via="196936364 -169155978 -242175885#2 366633021#0 169155983"  type="30km"/>
    <trip id="92" depart="0.00" from="-197101133#1" to="195670109" via="-197101137#1 155096429#2 -195670113#2 -197722005#0 -169155984#1"  type="30km"/>
    <trip id="93" depart="0.00" from="169155983" to="-169155983" via="-169155959#0 -195670112#0 195670107#1 -169149335#2 -195670100"  type="30km"/>
    <trip id="94" depart="0.00" from="-392533658#2" to="169155978" via="197101137#0 557177561#0 -155095489 -197101145#0 169155983"  type="30km"/>
    <trip id="95" depart="0.00" from="-155096424#0" to="197101141#4" via="-395074683 195670074#0 242175885#0 197101141#0 169149226"  type="30km"/>
    <trip id="96" depart="0.00" from="-169149270" to="155095489" via="-155095488#1 -155096425#1 395486584 -395074680 195670078#0"  type="30km"/>
    <trip id="97" depart="0.00" from="195670098" to="195670112#0" via="195670082 -155096434#4 -195271278#6 -195271278#5 -169149267"  type="30km"/>
    <trip id="98" depart="0.00" from="-169155983" to="195670106" via="-395074684 -392533660 196937014#1 -196937014#1 -169155959#2"  type="30km"/>
    <trip id="99" depart="0.00" from="-169156000#0" to="-195670080#1" via="395074684 -196936364 155096424#6 -195271278#3 197101136#0"  type="30km"/>
</routes>
